   16
 
B      -0.000862    1.444378    1.545497
B       1.255115    0.719177    4.639064
N       0.003019    1.442108    4.638035
N       1.251194    0.721460    1.546113
B       2.503473    1.442332    1.546686
B       3.759332    0.717255    4.640307
N       2.507247    1.440123    4.639287
N       3.755485    0.719482    1.547350
B      -1.254565    3.611971    1.544252
B       0.001361    2.886871    4.637869
N      -1.250705    3.609734    4.636838
N      -0.002524    2.889102    1.544946
B       1.249604    3.610061    1.545565
B       2.505526    2.884920    4.639075
N       1.253430    3.607858    4.638019
N       2.501608    2.887185    1.546152
